Version 4
SHEET 1 880 680
WIRE 112 128 48 128
WIRE 256 128 192 128
WIRE 528 128 256 128
WIRE 256 144 256 128
WIRE 48 160 48 128
WIRE 528 160 528 128
WIRE 320 208 256 208
WIRE 320 224 320 208
WIRE 48 272 48 240
WIRE 112 272 48 272
WIRE 256 272 192 272
WIRE 512 272 256 272
WIRE 528 272 528 224
WIRE 528 272 512 272
WIRE 512 320 512 272
WIRE 48 336 48 272
WIRE 256 384 256 336
FLAG 256 384 0
FLAG 320 224 0
FLAG 512 320 0
FLAG 48 336 0
SYMBOL res 208 112 R90
WINDOW 0 0 56 VBottom 2
WINDOW 3 32 56 VTop 2
SYMATTR InstName R1
SYMATTR Value 100
SYMBOL res 208 256 R90
WINDOW 0 0 56 VBottom 2
WINDOW 3 32 56 VTop 2
SYMATTR InstName R2
SYMATTR Value 100
SYMBOL cap 240 144 R0
SYMATTR InstName C1
SYMATTR Value 100n
SYMBOL cap 240 272 R0
SYMATTR InstName C2
SYMATTR Value 100n
SYMBOL voltage 48 144 R0
SYMATTR InstName V1
SYMATTR Value AC 1
SYMBOL zener 544 224 R180
WINDOW 0 24 64 Left 2
WINDOW 3 24 0 Left 2
SYMATTR InstName D1
SYMATTR Value EDZV7_5B
TEXT 14 408 Left 2 !.ac dec 20 1 100k
