Version 4
SHEET 1 880 680
SYMBOL MyTL431 240 224 R0
SYMATTR InstName U1
