Version 4
SHEET 1 880 680
SYMBOL pnp 272 176 M270
SYMATTR InstName Q1
